# generated using pymatgen
data_LiAl
_symmetry_space_group_name_H-M   'P 1'
_cell_length_a   4.46800190
_cell_length_b   4.46800190
_cell_length_c   8.60409900
_cell_angle_alpha   90.00000000
_cell_angle_beta   90.00000000
_cell_angle_gamma   120.00000000
_symmetry_Int_Tables_number   1
_chemical_formula_structural   LiAl
_chemical_formula_sum   'Li4 Al4'
_cell_volume   148.75197078
_cell_formula_units_Z   4
loop_
 _symmetry_equiv_pos_site_id
 _symmetry_equiv_pos_as_xyz
  1  'x, y, z'
loop_
 _atom_site_type_symbol
 _atom_site_label
 _atom_site_symmetry_multiplicity
 _atom_site_fract_x
 _atom_site_fract_y
 _atom_site_fract_z
 _atom_site_occupancy
  Li  Li0  1  0.66666667  0.33333333  0.91638100  1
  Li  Li1  1  0.33333333  0.66666667  0.08361900  1
  Li  Li2  1  0.33333333  0.66666667  0.41638100  1
  Li  Li3  1  0.66666667  0.33333333  0.58361900  1
  Al  Al4  1  0.00000000  0.00000000  0.75000000  1
  Al  Al5  1  0.00000000  0.00000000  0.25000000  1
  Al  Al6  1  0.66666667  0.33333333  0.25000000  1
  Al  Al7  1  0.33333333  0.66666667  0.75000000  1